      3 'GENCLS' 1     2.5000       0.0000      /
      1 'WT4G1' 1      0.20000E-01  0.20000E-01  0.40000      0.90000
          1.1100       1.2000       2.0000       2.0000      0.20000E-01  /
      1  'WT4E1'  1              0         0         0         0
         0.15000              18.000              5.0000             0.50000E-01         0.10000
          0.0000             0.80000E-01         0.47000            -0.47000              1.1000
          0.0000             0.50000            -0.50000             0.50000E-01         0.10000
         0.90000              1.1000              120.00             0.50000E-01         0.50000E-01
          1.7000              1.1100              1.1100     /
