  2 'GENROU' 1 7.62 0.06 1.31 0.04 3.69 0 1.55 1.52 0.15 0.48 0.15 0.12 0.17 0.57 /
  2 'IEEET1' 1 0 24.79 0.02 100 -100 1 0.72 0.09 1.2 0 2.8 0.04 3.73 0.33 /
  2 'IEEEG1' 1 0 0 17.2 4.93 4.24 0.07 0.3 -0.3 2 0 0.11 0.33 0 8.96 0.44 0 6.13 0.17 0 1.42 0.06 0 /
  2 'GENROU' 2 7.62 0.06 1.31 0.04 3.69 0 1.55 1.52 0.15 0.48 0.15 0.12 0.17 0.57 /
  2 'IEEET1' 2 0 24.79 0.02 100 -100 1 0.72 0.09 1.2 0 2.8 0.04 3.73 0.33 /
  2 'IEEEG1' 2 0 0 17.2 4.93 4.24 0.07 0.3 -0.3 2 0 0.11 0.33 0 8.96 0.44 0 6.13 0.17 0 1.42 0.06 0 /
  2 'GENROU' 3 7.62 0.06 1.31 0.04 3.69 0 1.55 1.52 0.15 0.48 0.15 0.12 0.17 0.57 /
  2 'IEEET1' 3 0 24.79 0.02 100 -100 1 0.72 0.09 1.2 0 2.8 0.04 3.73 0.33 /
  2 'IEEEG1' 3 0 0 17.2 4.93 4.24 0.07 0.3 -0.3 2 0 0.11 0.33 0 8.96 0.44 0 6.13 0.17 0 1.42 0.06 0 /
  2 'GENROU' 4 7.62 0.06 1.31 0.04 3.69 0 1.55 1.52 0.15 0.48 0.15 0.12 0.17 0.57 /
  2 'IEEET1' 4 0 24.79 0.02 100 -100 1 0.72 0.09 1.2 0 2.8 0.04 3.73 0.33 /
  2 'IEEEG1' 4 0 0 17.2 4.93 4.24 0.07 0.3 -0.3 2 0 0.11 0.33 0 8.96 0.44 0 6.13 0.17 0 1.42 0.06 0 /
  23 'GENROU' 1 9.23 0.03 0.54 0.06 6.15 0 1.6 1.56 0.32 0.59 0.32 0.25 0.13 0.49 /
  23 'ESST4B' 1 0 63.59 27.91 100 -100 0.02 0.95 8.85 100 -100 0.85 9.3 0 11.63 0.11 0.12 0 /
  23 'GGOV1' 1 1 0 0.05 0.58 0.05 -0.05 9.01 0.73 0 1 1 0.15 0.23 0.52 0.09 0.25 0 0 3 0.7 3.42 1.02 0 1 -1 0 0.02 10 0.06 0 0 1 2.13 99 -99 /
  23 'IEEEST' 1 1 0 0 0 0 0 0 0 0.3 0.6 0.7 1 0.1 0.1 10 0.1 -0.1 0 0 /
  23 'REGCA1' 10 1 0.0171 10 0.9 0.5 1.22 1.2 0.8 0.4 -1.3 0.02 0.7 0 0 0.8 /
  23 'REECA1' 10 23 0 0 0 0 0 0.85 1.15 0.02 0 0 5 1.1 -1.1 0 0 0 0.5 0 0.436 -0.436 1.1 0.9 0 0.1 18 5 0 0.02 99 -99 1 0 1.3 0.026 0 0 0 0 0 0 0 0 0 0 0 0 0 0 0 0 /
  23 'REPCA1' 10 23 0 0 0 1 1 0 0 1.04 3.73 0 1.9 0.7 0 0 1 1 -1 0 0 1 -1 10 10 0 0 0 1 -1 2 0 3 20 0 /
  23 'GENROU' 2 9.23 0.03 0.54 0.06 6.15 0 1.6 1.56 0.32 0.59 0.32 0.25 0.13 0.49 /
  23 'ESST4B' 2 0 63.59 27.91 100 -100 0.02 0.95 8.85 100 -100 0.85 9.3 0 11.63 0.11 0.12 0 /
  23 'GGOV1' 2 1 0 0.05 0.58 0.05 -0.05 9.01 0.73 0 1 1 0.15 0.23 0.52 0.09 0.25 0 0 3 0.7 3.42 1.02 0 1 -1 0 0.02 10 0.06 0 0 1 2.13 99 -99 /
  23 'IEEEST' 2 1 0 0 0 0 0 0 0 0.3 0.6 0.7 1 0.1 0.1 10 0.1 -0.1 0 0 /
  23 'GENROU' 3 9.23 0.03 0.54 0.06 6.15 0 1.6 1.56 0.32 0.59 0.32 0.25 0.13 0.49 /
  23 'ESST4B' 3 0 63.59 27.91 100 -100 0.02 0.95 8.85 100 -100 0.85 9.3 0 11.63 0.11 0.12 0 /
  23 'GGOV1' 3 1 0 0.05 0.58 0.05 -0.05 9.01 0.73 0 1 1 0.15 0.23 0.52 0.09 0.25 0 0 3 0.7 3.42 1.02 0 1 -1 0 0.02 10 0.06 0 0 1 2.13 99 -99 /
  23 'IEEEST' 3 1 0 0 0 0 0 0 0 0.3 0.6 0.7 1 0.1 0.1 10 0.1 -0.1 0 0 /
  23 'GENROU' 4 9.23 0.03 0.54 0.06 6.15 0 1.6 1.56 0.32 0.59 0.32 0.25 0.13 0.49 /
  23 'ESST4B' 4 0 63.59 27.91 100 -100 0.02 0.95 8.85 100 -100 0.85 9.3 0 11.63 0.11 0.12 0 /
  23 'GGOV1' 4 1 0 0.05 0.58 0.05 -0.05 9.01 0.73 0 1 1 0.15 0.23 0.52 0.09 0.25 0 0 3 0.7 3.42 1.02 0 1 -1 0 0.02 10 0.06 0 0 1 2.13 99 -99 /
  23 'IEEEST' 4 1 0 0 0 0 0 0 0 0.3 0.6 0.7 1 0.1 0.1 10 0.1 -0.1 0 0 /
  23 'GENROU' 5 9.23 0.03 0.54 0.06 6.15 0 1.6 1.56 0.32 0.59 0.32 0.25 0.13 0.49 /
  23 'ESST4B' 5 0 63.59 27.91 100 -100 0.02 0.95 8.85 100 -100 0.85 9.3 0 11.63 0.11 0.12 0 /
  23 'GGOV1' 5 1 0 0.05 0.58 0.05 -0.05 9.01 0.73 0 1 1 0.15 0.23 0.52 0.09 0.25 0 0 3 0.7 3.42 1.02 0 1 -1 0 0.02 10 0.06 0 0 1 2.13 99 -99 /
  23 'IEEEST' 5 1 0 0 0 0 0 0 0 0.3 0.6 0.7 1 0.1 0.1 10 0.1 -0.1 0 0 /
  23 'GENROU' 6 9.23 0.03 0.54 0.06 6.15 0 1.6 1.56 0.32 0.59 0.32 0.25 0.13 0.49 /
  23 'ESST4B' 6 0 63.59 27.91 100 -100 0.02 0.95 8.85 100 -100 0.85 9.3 0 11.63 0.11 0.12 0 /
  23 'GGOV1' 6 1 0 0.05 0.58 0.05 -0.05 9.01 0.73 0 1 1 0.15 0.23 0.52 0.09 0.25 0 0 3 0.7 3.42 1.02 0 1 -1 0 0.02 10 0.06 0 0 1 2.13 99 -99 /
  23 'IEEEST' 6 1 0 0 0 0 0 0 0 0.3 0.6 0.7 1 0.1 0.1 10 0.1 -0.1 0 0 /
  23 'GENROU' 7 9.23 0.03 0.54 0.06 6.15 0 1.6 1.56 0.32 0.59 0.32 0.25 0.13 0.49 /
  23 'ESST4B' 7 0 63.59 27.91 100 -100 0.02 0.95 8.85 100 -100 0.85 9.3 0 11.63 0.11 0.12 0 /
  23 'GGOV1' 7 1 0 0.05 0.58 0.05 -0.05 9.01 0.73 0 1 1 0.15 0.23 0.52 0.09 0.25 0 0 3 0.7 3.42 1.02 0 1 -1 0 0.02 10 0.06 0 0 1 2.13 99 -99 /
  23 'IEEEST' 7 1 0 0 0 0 0 0 0 0.3 0.6 0.7 1 0.1 0.1 10 0.1 -0.1 0 0 /
  23 'GENROU' 8 9.23 0.03 0.54 0.06 6.15 0 1.6 1.56 0.32 0.59 0.32 0.25 0.13 0.49 /
  23 'ESST4B' 8 0 63.59 27.91 100 -100 0.02 0.95 8.85 100 -100 0.85 9.3 0 11.63 0.11 0.12 0 /
  23 'GGOV1' 8 1 0 0.05 0.58 0.05 -0.05 9.01 0.73 0 1 1 0.15 0.23 0.52 0.09 0.25 0 0 3 0.7 3.42 1.02 0 1 -1 0 0.02 10 0.06 0 0 1 2.13 99 -99 /
  23 'IEEEST' 8 1 0 0 0 0 0 0 0 0.3 0.6 0.7 1 0.1 0.1 10 0.1 -0.1 0 0 /
  23 'REGCA1' 9 1 0.0199 10 0.9 0.5 1.22 1.2 0.8 0.4 -1.3 0.02 0.7 0 0 0.8 /
  23 'REECA1' 9 23 0 0 0 0 0 0.85 1.15 0.02 0 0 5 1.1 -1.1 0 0 0 0.5 0 0.436 -0.436 1.1 0.9 0 0.1 18 5 0 0.02 99 -99 1 0 1.3 0.039 0 0 0 0 0 0 0 0 0 0 0 0 0 0 0 0 /
  23 'REPCA1' 9 23 0 0 0 1 1 0 0 3.41 4.19 0 2.15 0.7 0 0 1 1 -1 0 0 1 -1 10 10 0 0 0 1 -1 2 0 3 20 0 /
  26 'REGCA1' 1 1 0.0193 10 0.9 0.5 1.22 1.2 0.8 0.4 -1.3 0.02 0.7 0 0 0.8 /
  26 'REECA1' 1 26 0 0 0 0 0 0.85 1.15 0.02 0 0 5 1.1 -1.1 0 0 0 0.5 0 0.436 -0.436 1.1 0.9 0 0.1 18 5 0 0.02 99 -99 1 0 1.3 0.029 0 0 0 0 0 0 0 0 0 0 0 0 0 0 0 0 /
  26 'REPCA1' 1 26 0 0 0 1 1 0 0 4.83 1.87 0 3.31 0.7 0 0 1 1 -1 0 0 1 -1 10 10 0 0 0 1 -1 2 0 3 20 0 /
  26 'REGCA1' 2 1 0.0188 10 0.9 0.5 1.22 1.2 0.8 0.4 -1.3 0.02 0.7 0 0 0.8 /
  26 'REECA1' 2 26 0 0 0 0 0 0.85 1.15 0.02 0 0 5 1.1 -1.1 0 0 0 0.5 0 0.436 -0.436 1.1 0.9 0 0.1 18 5 0 0.02 99 -99 1 0 1.3 0.03 0 0 0 0 0 0 0 0 0 0 0 0 0 0 0 0 /
  26 'REPCA1' 2 26 0 0 0 1 1 0 0 3.61 3.48 0 5.84 0.7 0 0 1 1 -1 0 0 1 -1 10 10 0 0 0 1 -1 2 0 3 20 0 /
  27 'REGCA1' 1 1 0.0179 10 0.9 0.5 1.22 1.2 0.8 0.4 -1.3 0.02 0.7 0 0 0.8 /
  27 'REECA1' 1 27 0 0 0 0 0 0.85 1.15 0.02 0 0 5 1.1 -1.1 0 0 0 0.5 0 0.436 -0.436 1.1 0.9 0 0.1 18 5 0 0.02 99 -99 1 0 1.3 0.025 0 0 0 0 0 0 0 0 0 0 0 0 0 0 0 0 /
  27 'REPCA1' 1 27 0 0 0 1 1 0 0 4.2 1.56 0 5.57 0.7 0 0 1 1 -1 0 0 1 -1 10 10 0 0 0 1 -1 2 0 3 20 0 /
  27 'REGCA1' 2 1 0.018 10 0.9 0.5 1.22 1.2 0.8 0.4 -1.3 0.02 0.7 0 0 0.8 /
  27 'REECA1' 2 27 0 0 0 0 0 0.85 1.15 0.02 0 0 5 1.1 -1.1 0 0 0 0.5 0 0.436 -0.436 1.1 0.9 0 0.1 18 5 0 0.02 99 -99 1 0 1.3 0.026 0 0 0 0 0 0 0 0 0 0 0 0 0 0 0 0 /
  27 'REPCA1' 2 27 0 0 0 1 1 0 0 3.97 3.74 0 1.53 0.7 0 0 1 1 -1 0 0 1 -1 10 10 0 0 0 1 -1 2 0 3 20 0 /
  28 'REGCA1' 1 1 0.019 10 0.9 0.5 1.22 1.2 0.8 0.4 -1.3 0.02 0.7 0 0 0.8 /
  28 'REECA1' 1 28 0 0 0 0 0 0.85 1.15 0.02 0 0 5 1.1 -1.1 0 0 0 0.5 0 0.436 -0.436 1.1 0.9 0 0.1 18 5 0 0.02 99 -99 1 0 1.3 0.026 0 0 0 0 0 0 0 0 0 0 0 0 0 0 0 0 /
  28 'REPCA1' 1 28 0 0 0 1 1 0 0 2.26 1.31 0 6.23 0.7 0 0 1 1 -1 0 0 1 -1 10 10 0 0 0 1 -1 2 0 3 20 0 /
  28 'REGCA1' 2 1 0.018 10 0.9 0.5 1.22 1.2 0.8 0.4 -1.3 0.02 0.7 0 0 0.8 /
  28 'REECA1' 2 28 0 0 0 0 0 0.85 1.15 0.02 0 0 5 1.1 -1.1 0 0 0 0.5 0 0.436 -0.436 1.1 0.9 0 0.1 18 5 0 0.02 99 -99 1 0 1.3 0.029 0 0 0 0 0 0 0 0 0 0 0 0 0 0 0 0 /
  28 'REPCA1' 2 28 0 0 0 1 1 0 0 4.87 1.06 0 6.02 0.7 0 0 1 1 -1 0 0 1 -1 10 10 0 0 0 1 -1 2 0 3 20 0 /
  33 'REGCA1' 1 1 0.0193 10 0.9 0.5 1.22 1.2 0.8 0.4 -1.3 0.02 0.7 0 0 0.8 /
  33 'REECA1' 1 33 0 0 0 0 0 0.85 1.15 0.02 0 0 5 1.1 -1.1 0 0 0 0.5 0 0.436 -0.436 1.1 0.9 0 0.1 18 5 0 0.02 99 -99 1 0 1.3 0.025 0 0 0 0 0 0 0 0 0 0 0 0 0 0 0 0 /
  33 'REPCA1' 1 33 0 0 0 1 1 0 0 2.24 2.38 0 3.03 0.7 0 0 1 1 -1 0 0 1 -1 10 10 0 0 0 1 -1 2 0 3 20 0 /
  34 'GENROU' 1 4.99 0.02 0.89 0.04 4.35 0 1.74 1.67 0.16 0.29 0.16 0.12 0.17 0.58 /
  34 'EXST1' 1 0 100 -100 1.44 11.56 942.91 0.08 100 -100 0.05 0.17 1.35 /
  34 'IEEEG1' 1 0 0 24.19 3.62 2.05 0.23 0.3 -0.3 2 0 0.16 0.4 0 7.17 0.32 0 1.97 0.09 0 5.42 0.18 0 /
  34 'GENROU' 2 4.99 0.02 0.89 0.04 4.35 0 1.74 1.67 0.16 0.29 0.16 0.12 0.17 0.58 /
  34 'EXST1' 2 0 100 -100 1.44 11.56 942.91 0.08 100 -100 0.05 0.17 1.35 /
  34 'IEEEG1' 2 0 0 24.19 3.62 2.05 0.23 0.3 -0.3 2 0 0.16 0.4 0 7.17 0.32 0 1.97 0.09 0 5.42 0.18 0 /
  34 'GENROU' 3 4.99 0.02 0.89 0.04 4.35 0 1.74 1.67 0.16 0.29 0.16 0.12 0.17 0.58 /
  34 'EXST1' 3 0 100 -100 1.44 11.56 942.91 0.08 100 -100 0.05 0.17 1.35 /
  34 'IEEEG1' 3 0 0 24.19 3.62 2.05 0.23 0.3 -0.3 2 0 0.16 0.4 0 7.17 0.32 0 1.97 0.09 0 5.42 0.18 0 /
  34 'GENROU' 4 4.99 0.02 0.89 0.04 4.35 0 1.74 1.67 0.16 0.29 0.16 0.12 0.17 0.58 /
  34 'EXST1' 4 0 100 -100 1.44 11.56 942.91 0.08 100 -100 0.05 0.17 1.35 /
  34 'IEEEG1' 4 0 0 24.19 3.62 2.05 0.23 0.3 -0.3 2 0 0.16 0.4 0 7.17 0.32 0 1.97 0.09 0 5.42 0.18 0 /
  34 'GENROU' 5 4.99 0.02 0.89 0.04 4.35 0 1.74 1.67 0.16 0.29 0.16 0.12 0.17 0.58 /
  34 'EXST1' 5 0 100 -100 1.44 11.56 942.91 0.08 100 -100 0.05 0.17 1.35 /
  34 'IEEEG1' 5 0 0 24.19 3.62 2.05 0.23 0.3 -0.3 2 0 0.16 0.4 0 7.17 0.32 0 1.97 0.09 0 5.42 0.18 0 /
  34 'GENROU' 6 4.99 0.02 0.89 0.04 4.35 0 1.74 1.67 0.16 0.29 0.16 0.12 0.17 0.58 /
  34 'EXST1' 6 0 100 -100 1.44 11.56 942.91 0.08 100 -100 0.05 0.17 1.35 /
  34 'IEEEG1' 6 0 0 24.19 3.62 2.05 0.23 0.3 -0.3 2 0 0.16 0.4 0 7.17 0.32 0 1.97 0.09 0 5.42 0.18 0 /
  35 'GENROU' 1 6.24 0.03 1.06 0.08 5.22 0 1.79 1.71 0.4 0.67 0.28 0.22 0.15 0.53 /
  35 'ESST4B' 1 0 26.09 45.58 100 -100 0.02 0.17 11.43 100 -100 0.96 9.3 0 11.63 0.11 0.12 0 /
  35 'IEEEG1' 1 0 0 23.99 2.46 1.39 0.06 0.3 -0.3 2 0 0.43 0.52 0 7.19 0.03 0 5.35 0.15 0 1.79 0.3 0 /
  35 'IEEEST' 1 1 0 0 0 0 0 0 0 1 0.06 0.35 0.5 0.9 0.9 0.1 0.1 -0.1 0 0 /
  35 'GENROU' 2 6.24 0.03 1.06 0.08 5.22 0 1.79 1.71 0.4 0.67 0.28 0.22 0.15 0.53 /
  35 'ESST4B' 2 0 26.09 45.58 100 -100 0.02 0.17 11.43 100 -100 0.96 9.3 0 11.63 0.11 0.12 0 /
  35 'IEEEG1' 2 0 0 23.99 2.46 1.39 0.06 0.3 -0.3 2 0 0.43 0.52 0 7.19 0.03 0 5.35 0.15 0 1.79 0.3 0 /
  35 'IEEEST' 2 1 0 0 0 0 0 0 0 1 0.06 0.35 0.5 0.9 0.9 0.1 0.1 -0.1 0 0 /
  35 'GENROU' 3 6.24 0.03 1.06 0.08 5.22 0 1.79 1.71 0.4 0.67 0.28 0.22 0.15 0.53 /
  35 'ESST4B' 3 0 26.09 45.58 100 -100 0.02 0.17 11.43 100 -100 0.96 9.3 0 11.63 0.11 0.12 0 /
  35 'GGOV1' 3 1 0 0.05 0.96 0.05 -0.05 9.39 1.65 0 1 1 0.15 0.26 0.55 0.05 0.23 0 0 3 0.87 4.85 0.96 0 1 -1 0 0.02 10 0.07 0 0 1 3.32 99 -99 /
  35 'IEEEST' 3 1 0 0 0 0 0 0 0 1 0.06 0.35 0.5 0.9 0.9 0.1 0.1 -0.1 0 0 /
  35 'GENROU' 4 6.24 0.03 1.06 0.08 5.22 0 1.79 1.71 0.4 0.67 0.28 0.22 0.15 0.53 /
  35 'ESST4B' 4 0 26.09 45.58 100 -100 0.02 0.17 11.43 100 -100 0.96 9.3 0 11.63 0.11 0.12 0 /
  35 'GGOV1' 4 1 0 0.05 0.96 0.05 -0.05 9.39 1.65 0 1 1 0.15 0.26 0.55 0.05 0.23 0 0 3 0.87 4.85 0.96 0 1 -1 0 0.02 10 0.07 0 0 1 3.32 99 -99 /
  35 'IEEEST' 4 1 0 0 0 0 0 0 0 1 0.06 0.35 0.5 0.9 0.9 0.1 0.1 -0.1 0 0 /
  35 'GENROU' 5 6.24 0.03 1.06 0.08 5.22 0 1.79 1.71 0.4 0.67 0.28 0.22 0.15 0.53 /
  35 'ESST4B' 5 0 26.09 45.58 100 -100 0.02 0.17 11.43 100 -100 0.96 9.3 0 11.63 0.11 0.12 0 /
  35 'GGOV1' 5 1 0 0.05 0.96 0.05 -0.05 9.39 1.65 0 1 1 0.15 0.26 0.55 0.05 0.23 0 0 3 0.87 4.85 0.96 0 1 -1 0 0.02 10 0.07 0 0 1 3.32 99 -99 /
  35 'IEEEST' 5 1 0 0 0 0 0 0 0 1 0.06 0.35 0.5 0.9 0.9 0.1 0.1 -0.1 0 0 /
  35 'GENROU' 6 6.24 0.03 1.06 0.08 5.22 0 1.79 1.71 0.4 0.67 0.28 0.22 0.15 0.53 /
  35 'ESST4B' 6 0 26.09 45.58 100 -100 0.02 0.17 11.43 100 -100 0.96 9.3 0 11.63 0.11 0.12 0 /
  35 'GGOV1' 6 1 0 0.05 0.96 0.05 -0.05 9.39 1.65 0 1 1 0.15 0.26 0.55 0.05 0.23 0 0 3 0.87 4.85 0.96 0 1 -1 0 0.02 10 0.07 0 0 1 3.32 99 -99 /
  35 'IEEEST' 6 1 0 0 0 0 0 0 0 1 0.06 0.35 0.5 0.9 0.9 0.1 0.1 -0.1 0 0 /
  35 'GENROU' 7 6.24 0.03 1.06 0.08 5.22 0 1.79 1.71 0.4 0.67 0.28 0.22 0.15 0.53 /
  35 'ESST4B' 7 0 26.09 45.58 100 -100 0.02 0.17 11.43 100 -100 0.96 9.3 0 11.63 0.11 0.12 0 /
  35 'GGOV1' 7 1 0 0.05 0.96 0.05 -0.05 9.39 1.65 0 1 1 0.15 0.26 0.55 0.05 0.23 0 0 3 0.87 4.85 0.96 0 1 -1 0 0.02 10 0.07 0 0 1 3.32 99 -99 /
  35 'IEEEST' 7 1 0 0 0 0 0 0 0 1 0.06 0.35 0.5 0.9 0.9 0.1 0.1 -0.1 0 0 /
  35 'GENROU' 8 6.24 0.03 1.06 0.08 5.22 0 1.79 1.71 0.4 0.67 0.28 0.22 0.15 0.53 /
  35 'ESST4B' 8 0 26.09 45.58 100 -100 0.02 0.17 11.43 100 -100 0.96 9.3 0 11.63 0.11 0.12 0 /
  35 'GGOV1' 8 1 0 0.05 0.96 0.05 -0.05 9.39 1.65 0 1 1 0.15 0.26 0.55 0.05 0.23 0 0 3 0.87 4.85 0.96 0 1 -1 0 0.02 10 0.07 0 0 1 3.32 99 -99 /
  35 'IEEEST' 8 1 0 0 0 0 0 0 0 1 0.06 0.35 0.5 0.9 0.9 0.1 0.1 -0.1 0 0 /
  36 'GENROU' 1 5.22 0.04 0.55 0.07 4.42 0 1.87 1.78 0.22 0.55 0.17 0.13 0.06 0.36 /
  36 'IEEET1' 1 0 29.03 0.05 100 -100 1 1.12 0.17 1.43 0 2.8 0.04 3.73 0.33 /
  36 'GGOV1' 1 1 0 0.05 0.97 0.05 -0.05 11.07 1.61 0 1 1 0.15 0.21 0.8 0.06 0.45 0 0 3 0.59 4.21 1.04 0 1 -1 0 0.01 10 0.07 0 0 1 4.66 99 -99 /
  36 'GENROU' 2 5.22 0.04 0.55 0.07 4.42 0 1.87 1.78 0.22 0.55 0.17 0.13 0.06 0.36 /
  36 'IEEET1' 2 0 29.03 0.05 100 -100 1 1.12 0.17 1.43 0 2.8 0.04 3.73 0.33 /
  36 'GGOV1' 2 1 0 0.05 0.97 0.05 -0.05 11.07 1.61 0 1 1 0.15 0.21 0.8 0.06 0.45 0 0 3 0.59 4.21 1.04 0 1 -1 0 0.01 10 0.07 0 0 1 4.66 99 -99 /
  36 'GENROU' 3 5.22 0.04 0.55 0.07 4.42 0 1.87 1.78 0.22 0.55 0.17 0.13 0.06 0.36 /
  36 'IEEET1' 3 0 29.03 0.05 100 -100 1 1.12 0.17 1.43 0 2.8 0.04 3.73 0.33 /
  36 'GGOV1' 3 1 0 0.05 0.97 0.05 -0.05 11.07 1.61 0 1 1 0.15 0.21 0.8 0.06 0.45 0 0 3 0.59 4.21 1.04 0 1 -1 0 0.01 10 0.07 0 0 1 4.66 99 -99 /
  36 'GENROU' 4 5.22 0.04 0.55 0.07 4.42 0 1.87 1.78 0.22 0.55 0.17 0.13 0.06 0.36 /
  36 'IEEET1' 4 0 29.03 0.05 100 -100 1 1.12 0.17 1.43 0 2.8 0.04 3.73 0.33 /
  36 'GGOV1' 4 1 0 0.05 0.97 0.05 -0.05 11.07 1.61 0 1 1 0.15 0.21 0.8 0.06 0.45 0 0 3 0.59 4.21 1.04 0 1 -1 0 0.01 10 0.07 0 0 1 4.66 99 -99 /
  37 'GENROU' 1 5.9 0.04 0.58 0.07 2.48 0 1.57 1.54 0.18 0.27 0.13 0.1 0.13 0.51 /
  37 'ESST1A' 1 1 1 0 100 -100 8.36 10.87 8.07 7.45 453.97 0.37 100 -100 100 -100 0.05 0.05 1.04 5 2.8 /
  37 'GGOV1' 1 1 0 0.04 0.66 0.05 -0.05 10.97 2.29 0 1 1 0.15 0.13 0.94 0.08 0.43 0 0 3 0.95 3.34 1.01 0 1 -1 0 0.02 10 0.05 0 0 1 3.76 99 -99 /
  37 'GENROU' 2 5.9 0.04 0.58 0.07 2.48 0 1.57 1.54 0.18 0.27 0.13 0.1 0.13 0.51 /
  37 'ESST1A' 2 1 1 0 100 -100 8.36 10.87 8.07 7.45 453.97 0.37 100 -100 100 -100 0.05 0.05 1.04 5 2.8 /
  37 'GGOV1' 2 1 0 0.04 0.66 0.05 -0.05 10.97 2.29 0 1 1 0.15 0.13 0.94 0.08 0.43 0 0 3 0.95 3.34 1.01 0 1 -1 0 0.02 10 0.05 0 0 1 3.76 99 -99 /
  37 'GENROU' 3 5.9 0.04 0.58 0.07 2.48 0 1.57 1.54 0.18 0.27 0.13 0.1 0.13 0.51 /
  37 'ESST1A' 3 1 1 0 100 -100 8.36 10.87 8.07 7.45 453.97 0.37 100 -100 100 -100 0.05 0.05 1.04 5 2.8 /
  37 'GGOV1' 3 1 0 0.04 0.66 0.05 -0.05 10.97 2.29 0 1 1 0.15 0.13 0.94 0.08 0.43 0 0 3 0.95 3.34 1.01 0 1 -1 0 0.02 10 0.05 0 0 1 3.76 99 -99 /
  37 'GENROU' 4 5.9 0.04 0.58 0.07 2.48 0 1.57 1.54 0.18 0.27 0.13 0.1 0.13 0.51 /
  37 'ESST1A' 4 1 1 0 100 -100 8.36 10.87 8.07 7.45 453.97 0.37 100 -100 100 -100 0.05 0.05 1.04 5 2.8 /
  37 'GGOV1' 4 1 0 0.04 0.66 0.05 -0.05 10.97 2.29 0 1 1 0.15 0.13 0.94 0.08 0.43 0 0 3 0.95 3.34 1.01 0 1 -1 0 0.02 10 0.05 0 0 1 3.76 99 -99 /
  37 'GENROU' 5 5.9 0.04 0.58 0.07 2.48 0 1.57 1.54 0.18 0.27 0.13 0.1 0.13 0.51 /
  37 'ESST1A' 5 1 1 0 100 -100 8.36 10.87 8.07 7.45 453.97 0.37 100 -100 100 -100 0.05 0.05 1.04 5 2.8 /
  37 'GGOV1' 5 1 0 0.04 0.66 0.05 -0.05 10.97 2.29 0 1 1 0.15 0.13 0.94 0.08 0.43 0 0 3 0.95 3.34 1.01 0 1 -1 0 0.02 10 0.05 0 0 1 3.76 99 -99 /
  37 'GENROU' 6 5.9 0.04 0.58 0.07 2.48 0 1.57 1.54 0.18 0.27 0.13 0.1 0.13 0.51 /
  37 'ESST1A' 6 1 1 0 100 -100 8.36 10.87 8.07 7.45 453.97 0.37 100 -100 100 -100 0.05 0.05 1.04 5 2.8 /
  37 'GGOV1' 6 1 0 0.04 0.66 0.05 -0.05 10.97 2.29 0 1 1 0.15 0.13 0.94 0.08 0.43 0 0 3 0.95 3.34 1.01 0 1 -1 0 0.02 10 0.05 0 0 1 3.76 99 -99 /
