    101 'GENSAL' 1     6.5000      0.60000E-01  0.20000      
          49.0000       0.0000       1.8000       1.7500      0.60000
               0.25000      0.15000      0.90000E-01  0.38000    /
    101 'GENSAL' 2     6.5000      0.60000E-01  0.20000      
          49.0000       0.0000       1.8000       1.7500      0.60000
               0.25000      0.15000      0.90000E-01  0.38000    /
    101 'GENSAL' 3     6.5000      0.60000E-01  0.20000      
          49.0000       0.0000       1.8000       1.7500      0.60000
               0.25000      0.15000      0.90000E-01  0.38000    /
    101 'GENSAL' 4     6.5000      0.60000E-01  0.20000      
          49.0000       0.0000       1.8000       1.7500      0.60000
               0.25000      0.15000      0.90000E-01  0.38000    /
    102 'GENSAL' 1     6.5000      0.60000E-01  0.20000      
          49.0000       0.0000       1.8000       1.7500      0.60000
               0.25000      0.15000      0.90000E-01  0.38000    /
    102 'GENSAL' 2     6.5000      0.60000E-01  0.20000      
          49.0000       0.0000       1.8000       1.7500      0.60000
               0.25000      0.15000      0.90000E-01  0.38000    /
    102 'GENSAL' 3     6.5000      0.60000E-01  0.20000      
          49.0000       0.0000       1.8000       1.7500      0.60000
               0.25000      0.15000      0.90000E-01  0.38000    /
    102 'GENSAL' 4     6.5000      0.60000E-01  0.20000      
          49.0000       0.0000       1.8000       1.7500      0.60000
               0.25000      0.15000      0.90000E-01  0.38000    /
    107 'GENSAL' 1     6.5000      0.60000E-01  0.20000      
          49.0000       0.0000       1.8000       1.7500      0.60000
               0.25000      0.15000      0.90000E-01  0.38000    /
    107 'GENSAL' 2     6.5000      0.60000E-01  0.20000      
          49.0000       0.0000       1.8000       1.7500      0.60000
               0.25000      0.15000      0.90000E-01  0.38000    /
    107 'GENSAL' 3     6.5000      0.60000E-01  0.20000      
          49.0000       0.0000       1.8000       1.7500      0.60000
               0.25000      0.15000      0.90000E-01  0.38000    /
    113 'GENSAL' 1     6.5000      0.60000E-01  0.20000      
          49.0000       0.0000       1.8000       1.7500      0.60000
               0.25000      0.15000      0.90000E-01  0.38000    /
    113 'GENSAL' 2     6.5000      0.60000E-01  0.20000      
          49.0000       0.0000       1.8000       1.7500      0.60000
               0.25000      0.15000      0.90000E-01  0.38000    /
    113 'GENSAL' 3     6.5000      0.60000E-01  0.20000      
          49.0000       0.0000       1.8000       1.7500      0.60000
               0.25000      0.15000      0.90000E-01  0.38000    /
    114 'GENSAL' 1     6.5000      0.60000E-01  0.20000      
          49.0000       0.0000       1.8000       1.7500      0.60000
               0.25000      0.15000      0.90000E-01  0.38000    /
    115 'GENSAL' 1     6.5000      0.60000E-01  0.20000      
          49.0000       0.0000       1.8000       1.7500      0.60000
               0.25000      0.15000      0.90000E-01  0.38000    /
    115 'GENSAL' 2     6.5000      0.60000E-01  0.20000      
          49.0000       0.0000       1.8000       1.7500      0.60000
               0.25000      0.15000      0.90000E-01  0.38000    /
    115 'GENSAL' 3     6.5000      0.60000E-01  0.20000      
          49.0000       0.0000       1.8000       1.7500      0.60000
               0.25000      0.15000      0.90000E-01  0.38000    /
    115 'GENSAL' 4     6.5000      0.60000E-01  0.20000      
          49.0000       0.0000       1.8000       1.7500      0.60000
               0.25000      0.15000      0.90000E-01  0.38000    /
    115 'GENSAL' 5     6.5000      0.60000E-01  0.20000      
          49.0000       0.0000       1.8000       1.7500      0.60000
               0.25000      0.15000      0.90000E-01  0.38000    /
    115 'GENSAL' 6     6.5000      0.60000E-01  0.20000      
          49.0000       0.0000       1.8000       1.7500      0.60000
               0.25000      0.15000      0.90000E-01  0.38000    /
    116 'GENSAL' 1     6.5000      0.60000E-01  0.20000      
          49.0000       0.0000       1.8000       1.7500      0.60000
               0.25000      0.15000      0.90000E-01  0.38000    /
    118 'GENSAL' 1     6.5000      0.60000E-01  0.20000      
          49.0000       0.0000       1.8000       1.7500      0.60000
               0.25000      0.15000      0.90000E-01  0.38000    /
    121 'GENSAL' 1     6.5000      0.60000E-01  0.20000      
          49.0000       0.0000       1.8000       1.7500      0.60000
               0.25000      0.15000      0.90000E-01  0.38000    /
    122 'GENSAL' 1     6.5000      0.60000E-01  0.20000      
          49.0000       0.0000       1.8000       1.7500      0.60000
               0.25000      0.15000      0.90000E-01  0.38000    /
    122 'GENSAL' 2     6.5000      0.60000E-01  0.20000      
          49.0000       0.0000       1.8000       1.7500      0.60000
               0.25000      0.15000      0.90000E-01  0.38000    /
    122 'GENSAL' 3     6.5000      0.60000E-01  0.20000      
          49.0000       0.0000       1.8000       1.7500      0.60000
               0.25000      0.15000      0.90000E-01  0.38000    /
    122 'GENSAL' 4     6.5000      0.60000E-01  0.20000      
          49.0000       0.0000       1.8000       1.7500      0.60000
               0.25000      0.15000      0.90000E-01  0.38000    /
    122 'GENSAL' 5     6.5000      0.60000E-01  0.20000      
          49.0000       0.0000       1.8000       1.7500      0.60000
               0.25000      0.15000      0.90000E-01  0.38000    /
    122 'GENSAL' 6     6.5000      0.60000E-01  0.20000      
          49.0000       0.0000       1.8000       1.7500      0.60000
               0.25000      0.15000      0.90000E-01  0.38000    /
    123 'GENSAL' 1     6.5000      0.60000E-01  0.20000      
          49.0000       0.0000       1.8000       1.7500      0.60000
               0.25000      0.15000      0.90000E-01  0.38000    /
    123 'GENSAL' 2     6.5000      0.60000E-01  0.20000      
          49.0000       0.0000       1.8000       1.7500      0.60000
               0.25000      0.15000      0.90000E-01  0.38000    /
    123 'GENSAL' 3     6.5000      0.60000E-01  0.20000      
          49.0000       0.0000       1.8000       1.7500      0.60000
               0.25000      0.15000      0.90000E-01  0.38000    /
    201 'GENSAL' 1     6.5000      0.60000E-01  0.20000      
          49.0000       0.0000       1.8000       1.7500      0.60000
               0.25000      0.15000      0.90000E-01  0.38000    /
    201 'GENSAL' 2     6.5000      0.60000E-01  0.20000      
          49.0000       0.0000       1.8000       1.7500      0.60000
               0.25000      0.15000      0.90000E-01  0.38000    /
    201 'GENSAL' 3     6.5000      0.60000E-01  0.20000      
          49.0000       0.0000       1.8000       1.7500      0.60000
               0.25000      0.15000      0.90000E-01  0.38000    /
    201 'GENSAL' 4     6.5000      0.60000E-01  0.20000      
          49.0000       0.0000       1.8000       1.7500      0.60000
               0.25000      0.15000      0.90000E-01  0.38000    /
    202 'GENSAL' 1     6.5000      0.60000E-01  0.20000      
          49.0000       0.0000       1.8000       1.7500      0.60000
               0.25000      0.15000      0.90000E-01  0.38000    /
    202 'GENSAL' 2     6.5000      0.60000E-01  0.20000      
          49.0000       0.0000       1.8000       1.7500      0.60000
               0.25000      0.15000      0.90000E-01  0.38000    /
    202 'GENSAL' 3     6.5000      0.60000E-01  0.20000      
          49.0000       0.0000       1.8000       1.7500      0.60000
               0.25000      0.15000      0.90000E-01  0.38000    /
    202 'GENSAL' 4     6.5000      0.60000E-01  0.20000      
          49.0000       0.0000       1.8000       1.7500      0.60000
               0.25000      0.15000      0.90000E-01  0.38000    /
    207 'GENSAL' 1     6.5000      0.60000E-01  0.20000      
          49.0000       0.0000       1.8000       1.7500      0.60000
               0.25000      0.15000      0.90000E-01  0.38000    /
    207 'GENSAL' 2     6.5000      0.60000E-01  0.20000      
          49.0000       0.0000       1.8000       1.7500      0.60000
               0.25000      0.15000      0.90000E-01  0.38000    /
    207 'GENSAL' 3     6.5000      0.60000E-01  0.20000      
          49.0000       0.0000       1.8000       1.7500      0.60000
               0.25000      0.15000      0.90000E-01  0.38000    /
    213 'GENSAL' 1     6.5000      0.60000E-01  0.20000      
          49.0000       0.0000       1.8000       1.7500      0.60000
               0.25000      0.15000      0.90000E-01  0.38000    /
    213 'GENSAL' 2     6.5000      0.60000E-01  0.20000      
          49.0000       0.0000       1.8000       1.7500      0.60000
               0.25000      0.15000      0.90000E-01  0.38000    /
    213 'GENSAL' 3     6.5000      0.60000E-01  0.20000      
          49.0000       0.0000       1.8000       1.7500      0.60000
               0.25000      0.15000      0.90000E-01  0.38000    /
    214 'GENSAL' 1     6.5000      0.60000E-01  0.20000      
          49.0000       0.0000       1.8000       1.7500      0.60000
               0.25000      0.15000      0.90000E-01  0.38000    /
    215 'GENSAL' 1     6.5000      0.60000E-01  0.20000      
          49.0000       0.0000       1.8000       1.7500      0.60000
               0.25000      0.15000      0.90000E-01  0.38000    /
    215 'GENSAL' 2     6.5000      0.60000E-01  0.20000      
          49.0000       0.0000       1.8000       1.7500      0.60000
               0.25000      0.15000      0.90000E-01  0.38000    /
    215 'GENSAL' 3     6.5000      0.60000E-01  0.20000      
          49.0000       0.0000       1.8000       1.7500      0.60000
               0.25000      0.15000      0.90000E-01  0.38000    /
    215 'GENSAL' 4     6.5000      0.60000E-01  0.20000      
          49.0000       0.0000       1.8000       1.7500      0.60000
               0.25000      0.15000      0.90000E-01  0.38000    /
    215 'GENSAL' 5     6.5000      0.60000E-01  0.20000      
          49.0000       0.0000       1.8000       1.7500      0.60000
               0.25000      0.15000      0.90000E-01  0.38000    /
    215 'GENSAL' 6     6.5000      0.60000E-01  0.20000      
          49.0000       0.0000       1.8000       1.7500      0.60000
               0.25000      0.15000      0.90000E-01  0.38000    /
    216 'GENSAL' 1     6.5000      0.60000E-01  0.20000      
          49.0000       0.0000       1.8000       1.7500      0.60000
               0.25000      0.15000      0.90000E-01  0.38000    /
    218 'GENSAL' 1     6.5000      0.60000E-01  0.20000      
          49.0000       0.0000       1.8000       1.7500      0.60000
               0.25000      0.15000      0.90000E-01  0.38000    /
    221 'GENSAL' 1     6.5000      0.60000E-01  0.20000      
          49.0000       0.0000       1.8000       1.7500      0.60000
               0.25000      0.15000      0.90000E-01  0.38000    /
    222 'GENSAL' 1     6.5000      0.60000E-01  0.20000      
          49.0000       0.0000       1.8000       1.7500      0.60000
               0.25000      0.15000      0.90000E-01  0.38000    /
    222 'GENSAL' 2     6.5000      0.60000E-01  0.20000      
          49.0000       0.0000       1.8000       1.7500      0.60000
               0.25000      0.15000      0.90000E-01  0.38000    /
    222 'GENSAL' 3     6.5000      0.60000E-01  0.20000      
          49.0000       0.0000       1.8000       1.7500      0.60000
               0.25000      0.15000      0.90000E-01  0.38000    /
    222 'GENSAL' 4     6.5000      0.60000E-01  0.20000      
          49.0000       0.0000       1.8000       1.7500      0.60000
               0.25000      0.15000      0.90000E-01  0.38000    /
    222 'GENSAL' 5     6.5000      0.60000E-01  0.20000      
          49.0000       0.0000       1.8000       1.7500      0.60000
               0.25000      0.15000      0.90000E-01  0.38000    /
    222 'GENSAL' 6     6.5000      0.60000E-01  0.20000      
          49.0000       0.0000       1.8000       1.7500      0.60000
               0.25000      0.15000      0.90000E-01  0.38000    /
    223 'GENSAL' 1     6.5000      0.60000E-01  0.20000      
          49.0000       0.0000       1.8000       1.7500      0.60000
               0.25000      0.15000      0.90000E-01  0.38000    /
    223 'GENSAL' 2     6.5000      0.60000E-01  0.20000      
          49.0000       0.0000       1.8000       1.7500      0.60000
               0.25000      0.15000      0.90000E-01  0.38000    /
    223 'GENSAL' 3     6.5000      0.60000E-01  0.20000      
          49.0000       0.0000       1.8000       1.7500      0.60000
               0.25000      0.15000      0.90000E-01  0.38000    /
    301 'GENSAL' 1     6.5000      0.60000E-01  0.20000      
          49.0000       0.0000       1.8000       1.7500      0.60000
               0.25000      0.15000      0.90000E-01  0.38000    /
    301 'GENSAL' 2     6.5000      0.60000E-01  0.20000      
          49.0000       0.0000       1.8000       1.7500      0.60000
               0.25000      0.15000      0.90000E-01  0.38000    /
    301 'GENSAL' 3     6.5000      0.60000E-01  0.20000      
          49.0000       0.0000       1.8000       1.7500      0.60000
               0.25000      0.15000      0.90000E-01  0.38000    /
    301 'GENSAL' 4     6.5000      0.60000E-01  0.20000      
          49.0000       0.0000       1.8000       1.7500      0.60000
               0.25000      0.15000      0.90000E-01  0.38000    /
    302 'GENSAL' 1     6.5000      0.60000E-01  0.20000      
          49.0000       0.0000       1.8000       1.7500      0.60000
               0.25000      0.15000      0.90000E-01  0.38000    /
    302 'GENSAL' 2     6.5000      0.60000E-01  0.20000      
          49.0000       0.0000       1.8000       1.7500      0.60000
               0.25000      0.15000      0.90000E-01  0.38000    /
    302 'GENSAL' 3     6.5000      0.60000E-01  0.20000      
          49.0000       0.0000       1.8000       1.7500      0.60000
               0.25000      0.15000      0.90000E-01  0.38000    /
    302 'GENSAL' 4     6.5000      0.60000E-01  0.20000      
          49.0000       0.0000       1.8000       1.7500      0.60000
               0.25000      0.15000      0.90000E-01  0.38000    /
    307 'GENSAL' 1     6.5000      0.60000E-01  0.20000      
          49.0000       0.0000       1.8000       1.7500      0.60000
               0.25000      0.15000      0.90000E-01  0.38000    /
    307 'GENSAL' 2     6.5000      0.60000E-01  0.20000      
          49.0000       0.0000       1.8000       1.7500      0.60000
               0.25000      0.15000      0.90000E-01  0.38000    /
    307 'GENSAL' 3     6.5000      0.60000E-01  0.20000      
          49.0000       0.0000       1.8000       1.7500      0.60000
               0.25000      0.15000      0.90000E-01  0.38000    /
    313 'GENSAL' 1     6.5000      0.60000E-01  0.20000      
          49.0000       0.0000       1.8000       1.7500      0.60000
               0.25000      0.15000      0.90000E-01  0.38000    /
    313 'GENSAL' 2     6.5000      0.60000E-01  0.20000      
          49.0000       0.0000       1.8000       1.7500      0.60000
               0.25000      0.15000      0.90000E-01  0.38000    /
    313 'GENSAL' 3     6.5000      0.60000E-01  0.20000      
          49.0000       0.0000       1.8000       1.7500      0.60000
               0.25000      0.15000      0.90000E-01  0.38000    /
    314 'GENSAL' 1     6.5000      0.60000E-01  0.20000      
          49.0000       0.0000       1.8000       1.7500      0.60000
               0.25000      0.15000      0.90000E-01  0.38000    /
    315 'GENSAL' 1     6.5000      0.60000E-01  0.20000      
          49.0000       0.0000       1.8000       1.7500      0.60000
               0.25000      0.15000      0.90000E-01  0.38000    /
    315 'GENSAL' 2     6.5000      0.60000E-01  0.20000      
          49.0000       0.0000       1.8000       1.7500      0.60000
               0.25000      0.15000      0.90000E-01  0.38000    /
    315 'GENSAL' 3     6.5000      0.60000E-01  0.20000      
          49.0000       0.0000       1.8000       1.7500      0.60000
               0.25000      0.15000      0.90000E-01  0.38000    /
    315 'GENSAL' 4     6.5000      0.60000E-01  0.20000      
          49.0000       0.0000       1.8000       1.7500      0.60000
               0.25000      0.15000      0.90000E-01  0.38000    /
    315 'GENSAL' 5     6.5000      0.60000E-01  0.20000      
          49.0000       0.0000       1.8000       1.7500      0.60000
               0.25000      0.15000      0.90000E-01  0.38000    /
    315 'GENSAL' 6     6.5000      0.60000E-01  0.20000      
          49.0000       0.0000       1.8000       1.7500      0.60000
               0.25000      0.15000      0.90000E-01  0.38000    /
    316 'GENSAL' 1     6.5000      0.60000E-01  0.20000      
          49.0000       0.0000       1.8000       1.7500      0.60000
               0.25000      0.15000      0.90000E-01  0.38000    /
    318 'GENSAL' 1     6.5000      0.60000E-01  0.20000      
          49.0000       0.0000       1.8000       1.7500      0.60000
               0.25000      0.15000      0.90000E-01  0.38000    /
    321 'GENSAL' 1     6.5000      0.60000E-01  0.20000      
          49.0000       0.0000       1.8000       1.7500      0.60000
               0.25000      0.15000      0.90000E-01  0.38000    /
    322 'GENSAL' 1     6.5000      0.60000E-01  0.20000      
          49.0000       0.0000       1.8000       1.7500      0.60000
               0.25000      0.15000      0.90000E-01  0.38000    /
    322 'GENSAL' 2     6.5000      0.60000E-01  0.20000      
          49.0000       0.0000       1.8000       1.7500      0.60000
               0.25000      0.15000      0.90000E-01  0.38000    /
    322 'GENSAL' 3     6.5000      0.60000E-01  0.20000      
          49.0000       0.0000       1.8000       1.7500      0.60000
               0.25000      0.15000      0.90000E-01  0.38000    /
    322 'GENSAL' 4     6.5000      0.60000E-01  0.20000      
          49.0000       0.0000       1.8000       1.7500      0.60000
               0.25000      0.15000      0.90000E-01  0.38000    /
    322 'GENSAL' 5     6.5000      0.60000E-01  0.20000      
          49.0000       0.0000       1.8000       1.7500      0.60000
               0.25000      0.15000      0.90000E-01  0.38000    /
    322 'GENSAL' 6     6.5000      0.60000E-01  0.20000      
          49.0000       0.0000       1.8000       1.7500      0.60000
               0.25000      0.15000      0.90000E-01  0.38000    /
    323 'GENSAL' 1     6.5000      0.60000E-01  0.20000      
          49.0000       0.0000       1.8000       1.7500      0.60000
               0.25000      0.15000      0.90000E-01  0.38000    /
    323 'GENSAL' 2     6.5000      0.60000E-01  0.20000      
          49.0000       0.0000       1.8000       1.7500      0.60000
               0.25000      0.15000      0.90000E-01  0.38000    /
    323 'GENSAL' 3     6.5000      0.60000E-01  0.20000      
          49.0000       0.0000       1.8000       1.7500      0.60000
               0.25000      0.15000      0.90000E-01  0.38000    /


	101 'IEEET1', 1,   .05, 187, .89,   1.7,    -1.7,  0, 1.15, 1  0.62,  0,     2.9,  .5, 6, .86 /		   
	101 'IEEET1', 2,   .05, 187, .89,   1.7,    -1.7,  0, 1.15, 1  0.62,  0,     2.9,  .5, 6, .86 /			   
	101 'IEEET1', 3,   .05, 187, .89,   1.7,    -1.7,  0, 1.15, 1  0.62,  0,     2.9,  .5, 6, .86 /			   
	101 'IEEET1', 4,   .05, 187, .89,   1.7,    -1.7,  0, 1.15, 1  0.62,  0,     2.9,  .5, 6, .86 /			   
	102 'IEEET1', 1,   .05, 187, .89,   1.7,    -1.7,  0, 1.15, 1  0.62,  0,     2.9,  .5, 6, .86 /		   
	102 'IEEET1', 2,   .05, 187, .89,   1.7,    -1.7,  0, 1.15, 1  0.62,  0,     2.9,  .5, 6, .86 /			   
	102 'IEEET1', 3,   .05, 187, .89,   1.7,    -1.7,  0, 1.15, 1  0.62,  0,     2.9,  .5, 6, .86 /			   
	102 'IEEET1', 4,   .05, 187, .89,   1.7,    -1.7,  0, 1.15, 1  0.62,  0,     2.9,  .5, 6, .86 /			   
	107 'IEEET1', 1,   .05, 187, .89,   1.7,    -1.7,  0, 1.15, 1  0.62,  0,     2.9,  .5, 6, .86 /		   
	107 'IEEET1', 2,   .05, 187, .89,   1.7,    -1.7,  0, 1.15, 1  0.62,  0,     2.9,  .5, 6, .86 /			   
	107 'IEEET1', 3,   .05, 187, .89,   1.7,    -1.7,  0, 1.15, 1  0.62,  0,     2.9,  .5, 6, .86 /			   
	113 'IEEET1', 1,   .05, 187, .89,   1.7,    -1.7,  0, 1.15, 1  0.62,  0,     2.9,  .5, 6, .86 /		   
	113 'IEEET1', 2,   .05, 187, .89,   1.7,    -1.7,  0, 1.15, 1  0.62,  0,     2.9,  .5, 6, .86 /			   
	113 'IEEET1', 3,   .05, 187, .89,   1.7,    -1.7,  0, 1.15, 1  0.62,  0,     2.9,  .5, 6, .86 /				   
	114 'IEEET1', 1,   .05, 187, .89,   1.7,    -1.7,  0, 1.15, 1  0.62,  0,     2.9,  .5, 6, .86 /	
	115 'IEEET1', 1,   .05, 187, .89,   1.7,    -1.7,  0, 1.15, 1  0.62,  0,     2.9,  .5, 6, .86 /		   
	115 'IEEET1', 2,   .05, 187, .89,   1.7,    -1.7,  0, 1.15, 1  0.62,  0,     2.9,  .5, 6, .86 /			   
	115 'IEEET1', 3,   .05, 187, .89,   1.7,    -1.7,  0, 1.15, 1  0.62,  0,     2.9,  .5, 6, .86 /			   
	115 'IEEET1', 4,   .05, 187, .89,   1.7,    -1.7,  0, 1.15, 1  0.62,  0,     2.9,  .5, 6, .86 /	
	115 'IEEET1', 5,   .05, 187, .89,   1.7,    -1.7,  0, 1.15, 1  0.62,  0,     2.9,  .5, 6, .86 /			   
	115 'IEEET1', 6,   .05, 187, .89,   1.7,    -1.7,  0, 1.15, 1  0.62,  0,     2.9,  .5, 6, .86 /	
	116 'IEEET1', 1,   .05, 187, .89,   1.7,    -1.7,  0, 1.15, 1  0.62,  0,     2.9,  .5, 6, .86 /
	118 'IEEET1', 1,   .05, 187, .89,   1.7,    -1.7,  0, 1.15, 1  0.62,  0,     2.9,  .5, 6, .86 /
	121 'IEEET1', 1,   .05, 187, .89,   1.7,    -1.7,  0, 1.15, 1  0.62,  0,     2.9,  .5, 6, .86 /	
	122 'IEEET1', 1,   .05, 187, .89,   1.7,    -1.7,  0, 1.15, 1  0.62,  0,     2.9,  .5, 6, .86 /		   
	122 'IEEET1', 2,   .05, 187, .89,   1.7,    -1.7,  0, 1.15, 1  0.62,  0,     2.9,  .5, 6, .86 /			   
	122 'IEEET1', 3,   .05, 187, .89,   1.7,    -1.7,  0, 1.15, 1  0.62,  0,     2.9,  .5, 6, .86 /			   
	122 'IEEET1', 4,   .05, 187, .89,   1.7,    -1.7,  0, 1.15, 1  0.62,  0,     2.9,  .5, 6, .86 /	
	122 'IEEET1', 5,   .05, 187, .89,   1.7,    -1.7,  0, 1.15, 1  0.62,  0,     2.9,  .5, 6, .86 /			   
	122 'IEEET1', 6,   .05, 187, .89,   1.7,    -1.7,  0, 1.15, 1  0.62,  0,     2.9,  .5, 6, .86 /	
	123 'IEEET1', 1,   .05, 187, .89,   1.7,    -1.7,  0, 1.15, 1  0.62,  0,     2.9,  .5, 6, .86 /		   
	123 'IEEET1', 2,   .05, 187, .89,   1.7,    -1.7,  0, 1.15, 1  0.62,  0,     2.9,  .5, 6, .86 /			   
	123 'IEEET1', 3,   .05, 187, .89,   1.7,    -1.7,  0, 1.15, 1  0.62,  0,     2.9,  .5, 6, .86 /				   
	201 'IEEET1', 1,   .05, 187, .89,   1.7,    -1.7,  0, 1.15, 1  0.62,  0,     2.9,  .5, 6, .86 /		   
	201 'IEEET1', 2,   .05, 187, .89,   1.7,    -1.7,  0, 1.15, 1  0.62,  0,     2.9,  .5, 6, .86 /			   
	201 'IEEET1', 3,   .05, 187, .89,   1.7,    -1.7,  0, 1.15, 1  0.62,  0,     2.9,  .5, 6, .86 /			   
	201 'IEEET1', 4,   .05, 187, .89,   1.7,    -1.7,  0, 1.15, 1  0.62,  0,     2.9,  .5, 6, .86 /			   
	202 'IEEET1', 1,   .05, 187, .89,   1.7,    -1.7,  0, 1.15, 1  0.62,  0,     2.9,  .5, 6, .86 /		   
	202 'IEEET1', 2,   .05, 187, .89,   1.7,    -1.7,  0, 1.15, 1  0.62,  0,     2.9,  .5, 6, .86 /			   
	202 'IEEET1', 3,   .05, 187, .89,   1.7,    -1.7,  0, 1.15, 1  0.62,  0,     2.9,  .5, 6, .86 /			   
	202 'IEEET1', 4,   .05, 187, .89,   1.7,    -1.7,  0, 1.15, 1  0.62,  0,     2.9,  .5, 6, .86 /			   
	207 'IEEET1', 1,   .05, 187, .89,   1.7,    -1.7,  0, 1.15, 1  0.62,  0,     2.9,  .5, 6, .86 /		   
	207 'IEEET1', 2,   .05, 187, .89,   1.7,    -1.7,  0, 1.15, 1  0.62,  0,     2.9,  .5, 6, .86 /			   
	207 'IEEET1', 3,   .05, 187, .89,   1.7,    -1.7,  0, 1.15, 1  0.62,  0,     2.9,  .5, 6, .86 /			   
	213 'IEEET1', 1,   .05, 187, .89,   1.7,    -1.7,  0, 1.15, 1  0.62,  0,     2.9,  .5, 6, .86 /		   
	213 'IEEET1', 2,   .05, 187, .89,   1.7,    -1.7,  0, 1.15, 1  0.62,  0,     2.9,  .5, 6, .86 /			   
	213 'IEEET1', 3,   .05, 187, .89,   1.7,    -1.7,  0, 1.15, 1  0.62,  0,     2.9,  .5, 6, .86 /				   
	214 'IEEET1', 1,   .05, 187, .89,   1.7,    -1.7,  0, 1.15, 1  0.62,  0,     2.9,  .5, 6, .86 /	
	215 'IEEET1', 1,   .05, 187, .89,   1.7,    -1.7,  0, 1.15, 1  0.62,  0,     2.9,  .5, 6, .86 /		   
	215 'IEEET1', 2,   .05, 187, .89,   1.7,    -1.7,  0, 1.15, 1  0.62,  0,     2.9,  .5, 6, .86 /			   
	215 'IEEET1', 3,   .05, 187, .89,   1.7,    -1.7,  0, 1.15, 1  0.62,  0,     2.9,  .5, 6, .86 /			   
	215 'IEEET1', 4,   .05, 187, .89,   1.7,    -1.7,  0, 1.15, 1  0.62,  0,     2.9,  .5, 6, .86 /	
	215 'IEEET1', 5,   .05, 187, .89,   1.7,    -1.7,  0, 1.15, 1  0.62,  0,     2.9,  .5, 6, .86 /			   
	215 'IEEET1', 6,   .05, 187, .89,   1.7,    -1.7,  0, 1.15, 1  0.62,  0,     2.9,  .5, 6, .86 /	
	216 'IEEET1', 1,   .05, 187, .89,   1.7,    -1.7,  0, 1.15, 1  0.62,  0,     2.9,  .5, 6, .86 /
	218 'IEEET1', 1,   .05, 187, .89,   1.7,    -1.7,  0, 1.15, 1  0.62,  0,     2.9,  .5, 6, .86 /
	221 'IEEET1', 1,   .05, 187, .89,   1.7,    -1.7,  0, 1.15, 1  0.62,  0,     2.9,  .5, 6, .86 /	
	222 'IEEET1', 1,   .05, 187, .89,   1.7,    -1.7,  0, 1.15, 1  0.62,  0,     2.9,  .5, 6, .86 /		   
	222 'IEEET1', 2,   .05, 187, .89,   1.7,    -1.7,  0, 1.15, 1  0.62,  0,     2.9,  .5, 6, .86 /			   
	222 'IEEET1', 3,   .05, 187, .89,   1.7,    -1.7,  0, 1.15, 1  0.62,  0,     2.9,  .5, 6, .86 /			   
	222 'IEEET1', 4,   .05, 187, .89,   1.7,    -1.7,  0, 1.15, 1  0.62,  0,     2.9,  .5, 6, .86 /	
	222 'IEEET1', 5,   .05, 187, .89,   1.7,    -1.7,  0, 1.15, 1  0.62,  0,     2.9,  .5, 6, .86 /			   
	222 'IEEET1', 6,   .05, 187, .89,   1.7,    -1.7,  0, 1.15, 1  0.62,  0,     2.9,  .5, 6, .86 /	
	223 'IEEET1', 1,   .05, 187, .89,   1.7,    -1.7,  0, 1.15, 1  0.62,  0,     2.9,  .5, 6, .86 /		   
	223 'IEEET1', 2,   .05, 187, .89,   1.7,    -1.7,  0, 1.15, 1  0.62,  0,     2.9,  .5, 6, .86 /			   
	223 'IEEET1', 3,   .05, 187, .89,   1.7,    -1.7,  0, 1.15, 1  0.62,  0,     2.9,  .5, 6, .86 /				   
	301 'IEEET1', 1,   .05, 187, .89,   1.7,    -1.7,  0, 1.15, 1  0.62,  0,     2.9,  .5, 6, .86 /		   
	301 'IEEET1', 2,   .05, 187, .89,   1.7,    -1.7,  0, 1.15, 1  0.62,  0,     2.9,  .5, 6, .86 /			   
	301 'IEEET1', 3,   .05, 187, .89,   1.7,    -1.7,  0, 1.15, 1  0.62,  0,     2.9,  .5, 6, .86 /			   
	301 'IEEET1', 4,   .05, 187, .89,   1.7,    -1.7,  0, 1.15, 1  0.62,  0,     2.9,  .5, 6, .86 /			   
	302 'IEEET1', 1,   .05, 187, .89,   1.7,    -1.7,  0, 1.15, 1  0.62,  0,     2.9,  .5, 6, .86 /		   
	302 'IEEET1', 2,   .05, 187, .89,   1.7,    -1.7,  0, 1.15, 1  0.62,  0,     2.9,  .5, 6, .86 /			   
	302 'IEEET1', 3,   .05, 187, .89,   1.7,    -1.7,  0, 1.15, 1  0.62,  0,     2.9,  .5, 6, .86 /			   
	302 'IEEET1', 4,   .05, 187, .89,   1.7,    -1.7,  0, 1.15, 1  0.62,  0,     2.9,  .5, 6, .86 /			   
	307 'IEEET1', 1,   .05, 187, .89,   1.7,    -1.7,  0, 1.15, 1  0.62,  0,     2.9,  .5, 6, .86 /		   
	307 'IEEET1', 2,   .05, 187, .89,   1.7,    -1.7,  0, 1.15, 1  0.62,  0,     2.9,  .5, 6, .86 /			   
	307 'IEEET1', 3,   .05, 187, .89,   1.7,    -1.7,  0, 1.15, 1  0.62,  0,     2.9,  .5, 6, .86 /			   
	313 'IEEET1', 1,   .05, 187, .89,   1.7,    -1.7,  0, 1.15, 1  0.62,  0,     2.9,  .5, 6, .86 /		   
	313 'IEEET1', 2,   .05, 187, .89,   1.7,    -1.7,  0, 1.15, 1  0.62,  0,     2.9,  .5, 6, .86 /			   
	313 'IEEET1', 3,   .05, 187, .89,   1.7,    -1.7,  0, 1.15, 1  0.62,  0,     2.9,  .5, 6, .86 /				   
	314 'IEEET1', 1,   .05, 187, .89,   1.7,    -1.7,  0, 1.15, 1  0.62,  0,     2.9,  .5, 6, .86 /	
	315 'IEEET1', 1,   .05, 187, .89,   1.7,    -1.7,  0, 1.15, 1  0.62,  0,     2.9,  .5, 6, .86 /		   
	315 'IEEET1', 2,   .05, 187, .89,   1.7,    -1.7,  0, 1.15, 1  0.62,  0,     2.9,  .5, 6, .86 /			   
	315 'IEEET1', 3,   .05, 187, .89,   1.7,    -1.7,  0, 1.15, 1  0.62,  0,     2.9,  .5, 6, .86 /			   
	315 'IEEET1', 4,   .05, 187, .89,   1.7,    -1.7,  0, 1.15, 1  0.62,  0,     2.9,  .5, 6, .86 /	
	315 'IEEET1', 5,   .05, 187, .89,   1.7,    -1.7,  0, 1.15, 1  0.62,  0,     2.9,  .5, 6, .86 /			   
	315 'IEEET1', 6,   .05, 187, .89,   1.7,    -1.7,  0, 1.15, 1  0.62,  0,     2.9,  .5, 6, .86 /	
	316 'IEEET1', 1,   .05, 187, .89,   1.7,    -1.7,  0, 1.15, 1  0.62,  0,     2.9,  .5, 6, .86 /
	318 'IEEET1', 1,   .05, 187, .89,   1.7,    -1.7,  0, 1.15, 1  0.62,  0,     2.9,  .5, 6, .86 /
	321 'IEEET1', 1,   .05, 187, .89,   1.7,    -1.7,  0, 1.15, 1  0.62,  0,     2.9,  .5, 6, .86 /	
	322 'IEEET1', 1,   .05, 187, .89,   1.7,    -1.7,  0, 1.15, 1  0.62,  0,     2.9,  .5, 6, .86 /		   
	322 'IEEET1', 2,   .05, 187, .89,   1.7,    -1.7,  0, 1.15, 1  0.62,  0,     2.9,  .5, 6, .86 /			   
	322 'IEEET1', 3,   .05, 187, .89,   1.7,    -1.7,  0, 1.15, 1  0.62,  0,     2.9,  .5, 6, .86 /			   
	322 'IEEET1', 4,   .05, 187, .89,   1.7,    -1.7,  0, 1.15, 1  0.62,  0,     2.9,  .5, 6, .86 /	
	322 'IEEET1', 5,   .05, 187, .89,   1.7,    -1.7,  0, 1.15, 1  0.62,  0,     2.9,  .5, 6, .86 /			   
	322 'IEEET1', 6,   .05, 187, .89,   1.7,    -1.7,  0, 1.15, 1  0.62,  0,     2.9,  .5, 6, .86 /	
	323 'IEEET1', 1,   .05, 187, .89,   1.7,    -1.7,  0, 1.15, 1  0.62,  0,     2.9,  .5, 6, .86 /		   
	323 'IEEET1', 2,   .05, 187, .89,   1.7,    -1.7,  0, 1.15, 1  0.62,  0,     2.9,  .5, 6, .86 /			   
	323 'IEEET1', 3,   .05, 187, .89,   1.7,    -1.7,  0, 1.15, 1  0.62,  0,     2.9,  .5, 6, .86 /					   
			   
			   
			   
	101 'IEEEG2', 1, 20, 5, 5, 1,   20,     -20, 1 /
	101 'IEEEG2', 2, 20, 5, 5, 1,   20,     -20, 1 /	
	101 'IEEEG2', 3, 20, 5, 5, 1,   20,     -20, 1 /
	101 'IEEEG2', 4, 20, 5, 5, 1,   20,     -20, 1 /